Mason's Sims/PTI/PSSE35/EXAMPLE/ieee_harmonics_test_case.rawx
{
    "general":{"version":"35.4"}, 
    "network":{
        "caseid":{
            "fields":["ic", "sbase", "rev", "xfrrat", "nxfrat", "basfrq", "title1", "title2"], 
            "data":[0, 100.0000, 35, 0, 0, 60.00000, "IEEE 14 BUS TEST SYSTEM - REFER TEST SYSTEMS FOR HARMONICS", "SIMULATION AND MODELING, IEEE PWRD VOL 4, NO 2, APRIL 1999"]
        }, 
        "general":{
            "fields":["thrshz", "pqbrak", "blowup", "maxisollvls", "camaxreptsln", "chkdupcntlbl"], 
            "data":[0.1000000E-03, 0.7000000, 5.000000, 4, 20, 0]
        }, 
        "gauss":{
            "fields":["itmx", "accp", "accq", "accm", "tol"], 
            "data":[100, 1.600000, 1.600000, 1.000000, 0.1000000E-03]
        }, 
        "newton":{
            "fields":["itmxn", "accn", "toln", "vctolq", "vctolv", "dvlim", "ndvfct"], 
            "data":[20, 1.000000, 0.1000000, 0.1000000, 0.1000000E-04, 0.9900000, 0.9900000]
        }, 
        "adjust":{
            "fields":["adjthr", "acctap", "taplim", "swvbnd", "mxtpss", "mxswim"], 
            "data":[0.5000000E-02, 1.000000, 0, 100.0000, 99, 10]
        }, 
        "tysl":{
            "fields":["itmxty", "accty", "tolty"], 
            "data":[20, 1.000000, 0.1000000E-04]
        }, 
        "solver":{
            "fields":["method", "actaps", "areain", "phshft", "dctaps", "swshnt", "flatst", "varlim", "nondiv"], 
            "data":["FNSL", 2, 0, 0, 1, 1, 0, 99, 0]
        }, 
        "rating":{
            "fields":["irate", "name", "desc"], 
            "data":[
                [1, "RATE1", "RATING SET 1"], 
                [2, "RATE2", "RATING SET 2"], 
                [3, "RATE3", "RATING SET 3"], 
                [4, "RATE4", "RATING SET 4"], 
                [5, "RATE5", "RATING SET 5"], 
                [6, "RATE6", "RATING SET 6"], 
                [7, "RATE7", "RATING SET 7"], 
                [8, "RATE8", "RATING SET 8"], 
                [9, "RATE9", "RATING SET 9"], 
                [10, "RATE10", "RATING SET 10"], 
                [11, "RATE11", "RATING SET 11"], 
                [12, "RATE12", "RATING SET 12"]
            ]
        }, 
        "bus":{
            "fields":["ibus", "name", "baskv", "ide", "area", "zone", "owner", "vm", "va", "nvhi", "nvlo", "evhi", "evlo"], 
            "data":[
                [1, "BUS 1", 230.0000, 3, 1, 1, 1, 1.060000, 0.000000, 1.100000, 0.9000000, 1.100000, 0.9000000], 
                [2, "BUS 2", 230.0000, 2, 1, 1, 1, 1.035840, -5.590200, 1.100000, 0.9000000, 1.100000, 0.9000000], 
                [3, "BUS 3", 230.0000, 1, 1, 1, 1, 0.9678600, -14.90340, 1.100000, 0.9000000, 1.100000, 0.9000000], 
                [4, "BUS 4", 230.0000, 1, 1, 1, 1, 0.9917100, -11.22100, 1.100000, 0.9000000, 1.100000, 0.9000000], 
                [5, "BUS 5", 230.0000, 1, 1, 1, 1, 1.005200, -9.664600, 1.100000, 0.9000000, 1.100000, 0.9000000], 
                [6, "BUS 6", 115.0000, 2, 1, 1, 1, 1.031320, -16.29710, 1.100000, 0.9000000, 1.100000, 0.9000000], 
                [7, "BUS 7", 230.0000, 1, 1, 1, 1, 0.9632600, -14.50370, 1.100000, 0.9000000, 1.100000, 0.9000000], 
                [8, "BUS 8", 13.80000, 1, 1, 1, 1, 0.9390700, 15.49630, 1.100000, 0.9000000, 1.100000, 0.9000000], 
                [9, "BUS 9", 115.0000, 1, 1, 1, 1, 0.9647200, -16.27900, 1.100000, 0.9000000, 1.100000, 0.9000000], 
                [10, "BUS 10", 115.0000, 1, 1, 1, 1, 0.9684400, -16.58740, 1.100000, 0.9000000, 1.100000, 0.9000000], 
                [11, "BUS 11", 115.0000, 1, 1, 1, 1, 0.9956500, -16.55540, 1.100000, 0.9000000, 1.100000, 0.9000000], 
                [12, "BUS 12", 115.0000, 1, 1, 1, 1, 1.011960, -17.20750, 1.100000, 0.9000000, 1.100000, 0.9000000], 
                [13, "BUS 13", 115.0000, 1, 1, 1, 1, 1.003240, -17.19280, 1.100000, 0.9000000, 1.100000, 0.9000000], 
                [14, "BUS 14", 115.0000, 1, 1, 1, 1, 0.9621300, -17.83040, 1.100000, 0.9000000, 1.100000, 0.9000000], 
                [301, "BUS 301", 35.40000, 1, 1, 1, 1, 0.9667300, -15.92380, 1.100000, 0.9000000, 1.100000, 0.9000000], 
                [302, "BUS 302", 35.40000, 1, 1, 1, 1, 0.9667300, 14.07620, 1.100000, 0.9000000, 1.100000, 0.9000000]
            ]
        }, 
        "load":{
            "fields":["ibus", "loadid", "stat", "area", "zone", "pl", "ql", "ip", "iq", "yp", "yq", "owner", "scale", "intrpt", "dgenp", "dgenq", "dgenm", "loadtype"], 
            "data":[
                [4, "1", 1, 1, 1, 47.79000, -3.900000, 0.000000, 0.000000, 0.000000, 0.000000, 1, 1, 0, 0.000000, 0.000000, 0, ""], 
                [5, "1", 1, 1, 1, 7.599000, 1.599000, 0.000000, 0.000000, 0.000000, 0.000000, 1, 1, 0, 0.000000, 0.000000, 0, ""], 
                [8, "1", 1, 1, 1, 0.000000, 12.90000, 0.000000, 0.000000, 0.000000, 0.000000, 1, 1, 0, 0.000000, 0.000000, 0, ""], 
                [9, "1", 1, 1, 1, 29.49900, 16.59900, 0.000000, 0.000000, 0.000000, 0.000000, 1, 1, 0, 0.000000, 0.000000, 0, ""], 
                [10, "1", 1, 1, 1, 9.000000, 5.799000, 0.000000, 0.000000, 0.000000, 0.000000, 1, 1, 0, 0.000000, 0.000000, 0, ""], 
                [11, "1", 1, 1, 1, 3.501000, 1.800000, 0.000000, 0.000000, 0.000000, 0.000000, 1, 1, 0, 0.000000, 0.000000, 0, ""], 
                [12, "1", 1, 1, 1, 6.099000, 1.599000, 0.000000, 0.000000, 0.000000, 0.000000, 1, 1, 0, 0.000000, 0.000000, 0, ""], 
                [13, "1", 1, 1, 1, 13.50000, 5.799000, 0.000000, 0.000000, 0.000000, 0.000000, 1, 1, 0, 0.000000, 0.000000, 0, ""], 
                [14, "1", 1, 1, 1, 14.90100, 5.001000, 0.000000, 0.000000, 0.000000, 0.000000, 1, 1, 0, 0.000000, 0.000000, 0, ""], 
                [301, "1", 1, 1, 1, 59.50500, 3.363000, 0.000000, 0.000000, 0.000000, 0.000000, 1, 1, 0, 0.000000, 0.000000, 0, ""], 
                [302, "1", 1, 1, 1, 59.50500, 3.363000, 0.000000, 0.000000, 0.000000, 0.000000, 1, 1, 0, 0.000000, 0.000000, 0, ""]
            ]
        }, 
        "fixshunt":{
            "fields":["ibus", "shntid", "stat", "gl", "bl"], 
            "data":[
                [9, "1", 1, 0.000000, 6.333000]
            ]
        }, 
        "generator":{
            "fields":["ibus", "machid", "pg", "qg", "qt", "qb", "vs", "ireg", "nreg", "mbase", "zr", "zx", "rt", "xt", "gtap", "stat", "rmpct", "pt", "pb", "baslod", "o1", "f1", "o2", "f2", "o3", "f3", "o4", "f4", "wmod", "wpf", "droopname"], 
            "data":[
                [1, "1", 261.9820, 0.5360000, 0.000000, 0.000000, 1.060000, 1, 0, 100.0000, 0.000000, 0.2500000, 0.000000, 0.000000, 1.000000, 1, 100.0000, 300.0000, -300.0000, 0, 1, 1.000000, null, null, null, null, null, null, null, null, ""], 
                [2, "1", 18.30000, 50.00000, 50.00000, -40.00000, 1.045000, 2, 0, 100.0000, 0.000000, 0.2500000, 0.000000, 0.000000, 1.000000, 1, 100.0000, 100.0000, -100.0000, 0, 1, 1.000000, null, null, null, null, null, null, null, null, ""], 
                [6, "1", -11.20000, 44.20000, 44.20000, -44.20000, 1.070000, 6, 0, 100.0000, 0.000000, 0.2500000, 0.000000, 0.000000, 1.000000, 1, 100.0000, 100.0000, -100.0000, 0, 1, 1.000000, null, null, null, null, null, null, null, null, ""]
            ]
        }, 
        "acline":{
            "fields":["ibus", "jbus", "ckt", "rpu", "xpu", "bpu", "name", "rate1", "rate2", "rate3", "rate4", "rate5", "rate6", "rate7", "rate8", "rate9", "rate10", "rate11", "rate12", "gi", "bi", "gj", "bj", "stat", "met", "len", "o1", "f1", "o2", "f2", "o3", "f3", "o4", "f4"], 
            "data":[
                [1, 2, "1", 0.1937000E-01, 0.5916000E-01, 0.5279000E-01, "", 0.000000, 0.000000, 0.000000, 0.000000, 0.000000, 0.000000, 0.000000, 0.000000, 0.000000, 0.000000, 0.000000, 0.000000, 0.000000, 0.000000, 0.000000, 0.000000, 1, 1, 0.000000, 1, 1.000000, null, null, null, null, null, null], 
                [1, 5, "1", 0.5402000E-01, 0.2230000, 0.4920000E-01, "", 0.000000, 0.000000, 0.000000, 0.000000, 0.000000, 0.000000, 0.000000, 0.000000, 0.000000, 0.000000, 0.000000, 0.000000, 0.000000, 0.000000, 0.000000, 0.000000, 1, 1, 0.000000, 1, 1.000000, null, null, null, null, null, null], 
                [2, 3, "1", 0.4697000E-01, 0.1979400, 0.4380000E-01, "", 0.000000, 0.000000, 0.000000, 0.000000, 0.000000, 0.000000, 0.000000, 0.000000, 0.000000, 0.000000, 0.000000, 0.000000, 0.000000, 0.000000, 0.000000, 0.000000, 1, 1, 0.000000, 1, 1.000000, null, null, null, null, null, null], 
                [2, 4, "1", 0.5810000E-01, 0.1762800, 0.3740000E-01, "", 0.000000, 0.000000, 0.000000, 0.000000, 0.000000, 0.000000, 0.000000, 0.000000, 0.000000, 0.000000, 0.000000, 0.000000, 0.000000, 0.000000, 0.000000, 0.000000, 1, 1, 0.000000, 1, 1.000000, null, null, null, null, null, null], 
                [2, 5, "1", 0.5693000E-01, 0.1738400, 0.3386000E-01, "", 0.000000, 0.000000, 0.000000, 0.000000, 0.000000, 0.000000, 0.000000, 0.000000, 0.000000, 0.000000, 0.000000, 0.000000, 0.000000, 0.000000, 0.000000, 0.000000, 1, 1, 0.000000, 1, 1.000000, null, null, null, null, null, null], 
                [3, 4, "1", 0.6700000E-01, 0.1709900, 0.3460000E-01, "", 0.000000, 0.000000, 0.000000, 0.000000, 0.000000, 0.000000, 0.000000, 0.000000, 0.000000, 0.000000, 0.000000, 0.000000, 0.000000, 0.000000, 0.000000, 0.000000, 1, 1, 0.000000, 1, 1.000000, null, null, null, null, null, null], 
                [4, 5, "1", 0.1335000E-01, 0.4209000E-01, 0.1280000E-01, "", 0.000000, 0.000000, 0.000000, 0.000000, 0.000000, 0.000000, 0.000000, 0.000000, 0.000000, 0.000000, 0.000000, 0.000000, 0.000000, 0.000000, 0.000000, 0.000000, 1, 1, 0.000000, 1, 1.000000, null, null, null, null, null, null], 
                [6, 11, "1", 0.9495000E-01, 0.1988700, 0.000000, "", 0.000000, 0.000000, 0.000000, 0.000000, 0.000000, 0.000000, 0.000000, 0.000000, 0.000000, 0.000000, 0.000000, 0.000000, 0.000000, 0.000000, 0.000000, 0.000000, 1, 1, 0.000000, 1, 1.000000, null, null, null, null, null, null], 
                [6, 12, "1", 0.1228500, 0.2557500, 0.000000, "", 0.000000, 0.000000, 0.000000, 0.000000, 0.000000, 0.000000, 0.000000, 0.000000, 0.000000, 0.000000, 0.000000, 0.000000, 0.000000, 0.000000, 0.000000, 0.000000, 1, 1, 0.000000, 1, 1.000000, null, null, null, null, null, null], 
                [6, 13, "1", 0.6613000E-01, 0.1302400, 0.000000, "", 0.000000, 0.000000, 0.000000, 0.000000, 0.000000, 0.000000, 0.000000, 0.000000, 0.000000, 0.000000, 0.000000, 0.000000, 0.000000, 0.000000, 0.000000, 0.000000, 1, 1, 0.000000, 1, 1.000000, null, null, null, null, null, null], 
                [9, 10, "1", 0.3181000E-01, 0.8448000E-01, 0.000000, "", 0.000000, 0.000000, 0.000000, 0.000000, 0.000000, 0.000000, 0.000000, 0.000000, 0.000000, 0.000000, 0.000000, 0.000000, 0.000000, 0.000000, 0.000000, 0.000000, 1, 1, 0.000000, 1, 1.000000, null, null, null, null, null, null], 
                [9, 14, "1", 0.1270000, 0.2703300, 0.000000, "", 0.000000, 0.000000, 0.000000, 0.000000, 0.000000, 0.000000, 0.000000, 0.000000, 0.000000, 0.000000, 0.000000, 0.000000, 0.000000, 0.000000, 0.000000, 0.000000, 1, 1, 0.000000, 1, 1.000000, null, null, null, null, null, null], 
                [10, 11, "1", 0.8203000E-01, 0.1920200, 0.000000, "", 0.000000, 0.000000, 0.000000, 0.000000, 0.000000, 0.000000, 0.000000, 0.000000, 0.000000, 0.000000, 0.000000, 0.000000, 0.000000, 0.000000, 0.000000, 0.000000, 1, 1, 0.000000, 1, 1.000000, null, null, null, null, null, null], 
                [12, 13, "1", 0.2208700, 0.1998500, 0.000000, "", 0.000000, 0.000000, 0.000000, 0.000000, 0.000000, 0.000000, 0.000000, 0.000000, 0.000000, 0.000000, 0.000000, 0.000000, 0.000000, 0.000000, 0.000000, 0.000000, 1, 1, 0.000000, 1, 1.000000, null, null, null, null, null, null], 
                [13, 14, "1", 0.1708900, 0.3479500, 0.000000, "", 0.000000, 0.000000, 0.000000, 0.000000, 0.000000, 0.000000, 0.000000, 0.000000, 0.000000, 0.000000, 0.000000, 0.000000, 0.000000, 0.000000, 0.000000, 0.000000, 1, 1, 0.000000, 1, 1.000000, null, null, null, null, null, null]
            ]
        }, 
        "sysswd":{
            "fields":["ibus", "jbus", "ckt", "xpu", "rate1", "rate2", "rate3", "rate4", "rate5", "rate6", "rate7", "rate8", "rate9", "rate10", "rate11", "rate12", "stat", "nstat", "met", "stype", "name"], 
            "data":[]
        }, 
        "transformer":{
            "fields":["ibus", "jbus", "kbus", "ckt", "cw", "cz", "cm", "mag1", "mag2", "nmet", "name", "stat", "o1", "f1", "o2", "f2", "o3", "f3", "o4", "f4", "vecgrp", "zcod", "r1_2", "x1_2", "sbase1_2", "r2_3", "x2_3", "sbase2_3", "r3_1", "x3_1", "sbase3_1", "vmstar", "anstar", "windv1", "nomv1", "ang1", "wdg1rate1", "wdg1rate2", "wdg1rate3", "wdg1rate4", "wdg1rate5", "wdg1rate6", "wdg1rate7", "wdg1rate8", "wdg1rate9", "wdg1rate10", "wdg1rate11", "wdg1rate12", "cod1", "cont1", "node1", "rma1", "rmi1", "vma1", "vmi1", "ntp1", "tab1", "cr1", "cx1", "cnxa1", "windv2", "nomv2", "ang2", "wdg2rate1", "wdg2rate2", "wdg2rate3", "wdg2rate4", "wdg2rate5", "wdg2rate6", "wdg2rate7", "wdg2rate8", "wdg2rate9", "wdg2rate10", "wdg2rate11", "wdg2rate12", "cod2", "cont2", "node2", "rma2", "rmi2", "vma2", "vmi2", "ntp2", "tab2", "cr2", "cx2", "cnxa2", "windv3", "nomv3", "ang3", "wdg3rate1", "wdg3rate2", "wdg3rate3", "wdg3rate4", "wdg3rate5", "wdg3rate6", "wdg3rate7", "wdg3rate8", "wdg3rate9", "wdg3rate10", "wdg3rate11", "wdg3rate12", "cod3", "cont3", "node3", "rma3", "rmi3", "vma3", "vmi3", "ntp3", "tab3", "cr3", "cx3", "cnxa3"], 
            "data":[
                [3, 301, 0, "1", 1, 1, 1, 0.000000, 0.000000, 2, "", 1, 1, 1.000000, 0, 1.000000, 0, 1.000000, 0, 1.000000, "YNyn0", null, 0.000000, 0.2800000E-01, 100.0000, null, null, null, null, null, null, null, null, 1.000000, 230.0000, 0.000000, 0.000000, 0.000000, 0.000000, 0.000000, 0.000000, 0.000000, 0.000000, 0.000000, 0.000000, 0.000000, 0.000000, 0.000000, 0, 0, 0, 1.100000, 0.9000000, 1.100000, 0.9000000, 33, 0, 0.000000, 0.000000, 0.000000, 1.000000, 35.40000, null, null, null, null, null, null, null, null, null, null, null, null, null, null, null, null, null, null, null, null, null, null, null, null, null, null, null, null, null, null, null, null, null, null, null, null, null, null, null, null, null, null, null, null, null, null, null, null, null, null, null, null], 
                [3, 302, 0, "1", 1, 1, 1, 0.000000, 0.000000, 2, "", 1, 1, 1.000000, 0, 1.000000, 0, 1.000000, 0, 1.000000, "YNd1", null, 0.000000, 0.2800000E-01, 100.0000, null, null, null, null, null, null, null, null, 1.000000, 230.0000, -30.00000, 0.000000, 0.000000, 0.000000, 0.000000, 0.000000, 0.000000, 0.000000, 0.000000, 0.000000, 0.000000, 0.000000, 0.000000, 1, 0, 0, 1.100000, 0.9000000, 1.100000, 0.9000000, 33, 0, 0.000000, 0.000000, 0.000000, 1.000000, 35.40000, null, null, null, null, null, null, null, null, null, null, null, null, null, null, null, null, null, null, null, null, null, null, null, null, null, null, null, null, null, null, null, null, null, null, null, null, null, null, null, null, null, null, null, null, null, null, null, null, null, null, null, null], 
                [4, 7, 0, "1", 1, 1, 1, 0.000000, 0.000000, 2, "", 1, 1, 1.000000, 0, 1.000000, 0, 1.000000, 0, 1.000000, "YNyn0", null, 0.000000, 0.2090000, 100.0000, null, null, null, null, null, null, null, null, 1.000000, 230.0000, 0.000000, 0.000000, 0.000000, 0.000000, 0.000000, 0.000000, 0.000000, 0.000000, 0.000000, 0.000000, 0.000000, 0.000000, 0.000000, 0, 0, 0, 1.500000, 0.5100000, 1.500000, 0.5100000, 159, 0, 0.000000, 0.000000, 0.000000, 1.000000, 230.0000, null, null, null, null, null, null, null, null, null, null, null, null, null, null, null, null, null, null, null, null, null, null, null, null, null, null, null, null, null, null, null, null, null, null, null, null, null, null, null, null, null, null, null, null, null, null, null, null, null, null, null, null], 
                [4, 9, 0, "1", 1, 1, 1, 0.000000, 0.000000, 2, "", 1, 1, 1.000000, 0, 1.000000, 0, 1.000000, 0, 1.000000, "YNyn0", null, 0.000000, 0.5561800, 100.0000, null, null, null, null, null, null, null, null, 1.000000, 230.0000, 0.000000, 0.000000, 0.000000, 0.000000, 0.000000, 0.000000, 0.000000, 0.000000, 0.000000, 0.000000, 0.000000, 0.000000, 0.000000, 0, 0, 0, 1.500000, 0.5100000, 1.500000, 0.5100000, 159, 0, 0.000000, 0.000000, 0.000000, 1.000000, 115.0000, null, null, null, null, null, null, null, null, null, null, null, null, null, null, null, null, null, null, null, null, null, null, null, null, null, null, null, null, null, null, null, null, null, null, null, null, null, null, null, null, null, null, null, null, null, null, null, null, null, null, null, null], 
                [5, 6, 0, "1", 1, 1, 1, 0.000000, 0.000000, 2, "", 1, 1, 1.000000, 0, 1.000000, 0, 1.000000, 0, 1.000000, "YNyn0", null, 0.000000, 0.2520200, 100.0000, null, null, null, null, null, null, null, null, 1.000000, 230.0000, 0.000000, 0.000000, 0.000000, 0.000000, 0.000000, 0.000000, 0.000000, 0.000000, 0.000000, 0.000000, 0.000000, 0.000000, 0.000000, 0, 0, 0, 1.500000, 0.5100000, 1.500000, 0.5100000, 159, 0, 0.000000, 0.000000, 0.000000, 1.000000, 115.0000, null, null, null, null, null, null, null, null, null, null, null, null, null, null, null, null, null, null, null, null, null, null, null, null, null, null, null, null, null, null, null, null, null, null, null, null, null, null, null, null, null, null, null, null, null, null, null, null, null, null, null, null], 
                [7, 8, 0, "1", 1, 1, 1, 0.000000, 0.000000, 2, "", 1, 1, 1.000000, 0, 1.000000, 0, 1.000000, 0, 1.000000, "YNd1", null, 0.000000, 0.1761500, 100.0000, null, null, null, null, null, null, null, null, 1.000000, 230.0000, -30.00000, 0.000000, 0.000000, 0.000000, 0.000000, 0.000000, 0.000000, 0.000000, 0.000000, 0.000000, 0.000000, 0.000000, 0.000000, 0, 0, 0, 1.100000, 0.9000000, 1.100000, 0.9000000, 33, 0, 0.000000, 0.000000, 0.000000, 1.000000, 13.80000, null, null, null, null, null, null, null, null, null, null, null, null, null, null, null, null, null, null, null, null, null, null, null, null, null, null, null, null, null, null, null, null, null, null, null, null, null, null, null, null, null, null, null, null, null, null, null, null, null, null, null, null], 
                [7, 9, 0, "1", 1, 1, 1, 0.000000, 0.000000, 2, "", 1, 1, 1.000000, 0, 1.000000, 0, 1.000000, 0, 1.000000, "YNyn0", null, 0.000000, 0.1100000, 100.0000, null, null, null, null, null, null, null, null, 1.000000, 230.0000, 0.000000, 0.000000, 0.000000, 0.000000, 0.000000, 0.000000, 0.000000, 0.000000, 0.000000, 0.000000, 0.000000, 0.000000, 0.000000, 0, 0, 0, 1.100000, 0.9000000, 1.100000, 0.9000000, 33, 0, 0.000000, 0.000000, 0.000000, 1.000000, 115.0000, null, null, null, null, null, null, null, null, null, null, null, null, null, null, null, null, null, null, null, null, null, null, null, null, null, null, null, null, null, null, null, null, null, null, null, null, null, null, null, null, null, null, null, null, null, null, null, null, null, null, null, null]
            ]
        }, 
        "area":{
            "fields":["iarea", "isw", "pdes", "ptol", "arname"], 
            "data":[
                [1, 1, 0.000000, 999.9900, "IEEE14"]
            ]
        }, 
        "twotermdc":{
            "fields":["name", "mdc", "rdc", "setvl", "vschd", "vcmod", "rcomp", "delti", "met", "dcvmin", "cccitmx", "cccacc", "ipr", "nbr", "anmxr", "anmnr", "rcr", "xcr", "ebasr", "trr", "tapr", "tmxr", "tmnr", "stpr", "icr", "ndr", "ifr", "itr", "idr", "xcapr", "ipi", "nbi", "anmxi", "anmni", "rci", "xci", "ebasi", "tri", "tapi", "tmxi", "tmni", "stpi", "ici", "ndi", "ifi", "iti", "idi", "xcapi"], 
            "data":[]
        }, 
        "vscdc":{
            "fields":["name", "mdc", "rdc", "o1", "f1", "o2", "f2", "o3", "f3", "o4", "f4", "ibus1", "type1", "mode1", "dcset1", "acset1", "aloss1", "bloss1", "minloss1", "smax1", "imax1", "pwf1", "maxq1", "minq1", "vsreg1", "nreg1", "rmpct1", "ibus2", "type2", "mode2", "dcset2", "acset2", "aloss2", "bloss2", "minloss2", "smax2", "imax2", "pwf2", "maxq2", "minq2", "vsreg2", "nreg2", "rmpct2"], 
            "data":[]
        }, 
        "impcor":{
            "fields":["itable", "tap", "refact", "imfact"], 
            "data":[]
        }, 
        "ntermdc":{
            "fields":["name", "nconv", "ndcbs", "ndcln", "mdc", "vconv", "vcmod", "vconvn"], 
            "data":[]
        }, 
        "ntermdcconv":{
            "fields":["name", "ib", "nbrdg", "angmx", "angmn", "rc", "xc", "ebas", "tr", "tap", "tpmx", "tpmn", "tstp", "setvl", "dcpf", "marg", "cnvcod"], 
            "data":[]
        }, 
        "ntermdcbus":{
            "fields":["name", "idc", "ib", "area", "zone", "dcname", "idc2", "rgrnd", "owner"], 
            "data":[]
        }, 
        "ntermdclink":{
            "fields":["name", "idc", "jdc", "dcckt", "met", "rdc", "ldc"], 
            "data":[]
        }, 
        "msline":{
            "fields":["ibus", "jbus", "mslid", "met", "dum1", "dum2", "dum3", "dum4", "dum5", "dum6", "dum7", "dum8", "dum9"], 
            "data":[]
        }, 
        "zone":{
            "fields":["izone", "zoname"], 
            "data":[
                [1, "IEEE 14"]
            ]
        }, 
        "iatrans":{
            "fields":["arfrom", "arto", "trid", "ptran"], 
            "data":[]
        }, 
        "owner":{
            "fields":["iowner", "owname"], 
            "data":[
                [1, "1"]
            ]
        }, 
        "facts":{
            "fields":["name", "ibus", "jbus", "mode", "pdes", "qdes", "vset", "shmx", "trmx", "vtmn", "vtmx", "vsmx", "imx", "linx", "rmpct", "owner", "set1", "set2", "vsref", "fcreg", "nreg", "mname"], 
            "data":[]
        }, 
        "swshunt":{
            "fields":["ibus", "shntid", "modsw", "adjm", "stat", "vswhi", "vswlo", "swreg", "nreg", "rmpct", "rmidnt", "binit", "s1", "n1", "b1", "s2", "n2", "b2", "s3", "n3", "b3", "s4", "n4", "b4", "s5", "n5", "b5", "s6", "n6", "b6", "s7", "n7", "b7", "s8", "n8", "b8"], 
            "data":[]
        }, 
        "gne":{
            "fields":["name", "model", "nterm", "bus1", "bus2", "nreal", "nintg", "nchar", "stat", "owner", "nmet", "real1", "real2", "real3", "real4", "real5", "real6", "real7", "real8", "real9", "real10", "intg1", "intg2", "intg3", "intg4", "intg5", "intg6", "intg7", "intg8", "intg9", "intg10", "char1", "char2", "char3", "char4", "char5", "char6", "char7", "char8", "char9", "char10"], 
            "data":[]
        }, 
        "indmach":{
            "fields":["ibus", "imid", "stat", "sc", "dc", "area", "zone", "owner", "tc", "bc", "mbase", "ratekv", "pcode", "pset", "hconst", "aconst", "bconst", "dconst", "econst", "ra", "xa", "xm", "r1", "x1", "r2", "x2", "x3", "e1", "se1", "e2", "se2", "ia1", "ia2", "xamult"], 
            "data":[]
        }, 
        "sub":{
            "fields":["isub", "name", "lati", "long", "srg"], 
            "data":[]
        }, 
        "subnode":{
            "fields":["isub", "inode", "name", "ibus", "stat", "vm", "va"], 
            "data":[]
        }, 
        "subswd":{
            "fields":["isub", "inode", "jnode", "swdid", "name", "type", "stat", "nstat", "xpu", "rate1", "rate2", "rate3"], 
            "data":[]
        }, 
        "subterm":{
            "fields":["isub", "inode", "type", "eqid", "ibus", "jbus", "kbus"], 
            "data":[]
        }
    }, 
    "timeseries":{}, 
    "harmonics":{}
}
